data_GaAs_2D
_audit_creation_date              2021-02-14
_audit_creation_method            'Materials Studio'
_symmetry_space_group_name_H-M    'P1'
_symmetry_Int_Tables_number       1
_symmetry_cell_setting            triclinic
loop_
_symmetry_equiv_pos_as_xyz
  x,y,z
_cell_length_a                    14.0850
_cell_length_b                    16.2640
_cell_length_c                    2.8300
_cell_angle_alpha                 90.0000
_cell_angle_beta                  90.0000
_cell_angle_gamma                 90.0000
loop_
_atom_site_label
_atom_site_type_symbol
_atom_site_fract_x
_atom_site_fract_y
_atom_site_fract_z
_atom_site_U_iso_or_equiv
_atom_site_adp_type
_atom_site_occupancy
Ga1    Ga   -0.00000   0.00000   0.29328   0.00000  Uiso   1.00
Ga2    Ga   -0.00000   0.25000   0.29328   0.00000  Uiso   1.00
Ga3    Ga   -0.00000   0.50000   0.29328   0.00000  Uiso   1.00
Ga4    Ga   -0.00000   0.75000   0.29328   0.00000  Uiso   1.00
Ga5    Ga    0.25000   0.12500   0.29328   0.00000  Uiso   1.00
Ga6    Ga    0.25000   0.37500   0.29328   0.00000  Uiso   1.00
Ga7    Ga    0.25000   0.62500   0.29328   0.00000  Uiso   1.00
Ga8    Ga    0.25000   0.87500   0.29328   0.00000  Uiso   1.00
Ga9    Ga    0.50000   0.00000   0.29328   0.00000  Uiso   1.00
Ga10   Ga    0.50000   0.25000   0.29328   0.00000  Uiso   1.00
Ga11   Ga    0.50000   0.50000   0.29328   0.00000  Uiso   1.00
Ga12   Ga    0.50000   0.75000   0.29328   0.00000  Uiso   1.00
Ga13   Ga    0.75000   0.12500   0.29328   0.00000  Uiso   1.00
Ga14   Ga    0.75000   0.37500   0.29328   0.00000  Uiso   1.00
Ga15   Ga    0.75000   0.62500   0.29328   0.00000  Uiso   1.00
Ga16   Ga    0.75000   0.87500   0.29328   0.00000  Uiso   1.00
As17   As    0.16667  -0.00000   0.00000   0.00000  Uiso   1.00
As18   As    0.16667   0.25000   0.00000   0.00000  Uiso   1.00
As19   As    0.16667   0.50000   0.00000   0.00000  Uiso   1.00
As20   As    0.16667   0.75000   0.00000   0.00000  Uiso   1.00
As21   As    0.41667   0.12500   0.00000   0.00000  Uiso   1.00
As22   As    0.41667   0.37500   0.00000   0.00000  Uiso   1.00
As23   As    0.41667   0.62500   0.00000   0.00000  Uiso   1.00
As24   As    0.41667   0.87500   0.00000   0.00000  Uiso   1.00
As25   As    0.66667  -0.00000   0.00000   0.00000  Uiso   1.00
As26   As    0.66667   0.25000   0.00000   0.00000  Uiso   1.00
As27   As    0.66667   0.50000   0.00000   0.00000  Uiso   1.00
As28   As    0.66667   0.75000   0.00000   0.00000  Uiso   1.00
As29   As    0.91667   0.12500   0.00000   0.00000  Uiso   1.00
As30   As    0.91667   0.37500   0.00000   0.00000  Uiso   1.00
As31   As    0.91667   0.62500   0.00000   0.00000  Uiso   1.00
As32   As    0.91667   0.87500   0.00000   0.00000  Uiso   1.00
loop_
_geom_bond_atom_site_label_1
_geom_bond_atom_site_label_2
_geom_bond_distance
_geom_bond_site_symmetry_2
_ccdc_geom_bond_type
Ga1    As17    2.490   .     S
Ga1    As29    2.490   1_455 S
Ga1    As32    2.490   1_445 S
Ga2    As18    2.490   .     S
Ga2    As29    2.490   1_455 S
Ga2    As30    2.490   1_455 S
Ga3    As19    2.490   .     S
Ga3    As30    2.490   1_455 S
Ga3    As31    2.490   1_455 S
Ga4    As20    2.490   .     S
Ga4    As31    2.490   1_455 S
Ga4    As32    2.490   1_455 S
Ga5    As17    2.490   .     S
Ga5    As18    2.490   .     S
Ga5    As21    2.490   .     S
Ga6    As18    2.490   .     S
Ga6    As19    2.490   .     S
Ga6    As22    2.490   .     S
Ga7    As19    2.490   .     S
Ga7    As20    2.490   .     S
Ga7    As23    2.490   .     S
Ga8    As17    2.490   1_565 S
Ga8    As20    2.490   .     S
Ga8    As24    2.490   .     S
Ga9    As21    2.490   .     S
Ga9    As24    2.490   1_545 S
Ga9    As25    2.490   .     S
Ga10   As21    2.490   .     S
Ga10   As22    2.490   .     S
Ga10   As26    2.490   .     S
Ga11   As22    2.490   .     S
Ga11   As23    2.490   .     S
Ga11   As27    2.490   .     S
Ga12   As23    2.490   .     S
Ga12   As24    2.490   .     S
Ga12   As28    2.490   .     S
Ga13   As25    2.490   .     S
Ga13   As26    2.490   .     S
Ga13   As29    2.490   .     S
Ga14   As26    2.490   .     S
Ga14   As27    2.490   .     S
Ga14   As30    2.490   .     S
Ga15   As27    2.490   .     S
Ga15   As28    2.490   .     S
Ga15   As31    2.490   .     S
Ga16   As25    2.490   1_565 S
Ga16   As28    2.490   .     S
Ga16   As32    2.490   .     S
As17   Ga8     2.490   1_545 S
As24   Ga9     2.490   1_565 S
As25   Ga16    2.490   1_545 S
As29   Ga2     2.490   1_655 S
As29   Ga1     2.490   1_655 S
As30   Ga3     2.490   1_655 S
As30   Ga2     2.490   1_655 S
As31   Ga4     2.490   1_655 S
As31   Ga3     2.490   1_655 S
As32   Ga1     2.490   1_665 S
As32   Ga4     2.490   1_655 S
